*Heading
** Job name: omnineck Model name: omnineck
** Generated by: Abaqus/CAE 2022
*Preprint, echo=NO, model=NO, history=NO, contact=NO
**
** PARTS
**
*Part, name=omnineck
*Node
      1,           0.,          20.,          40.
      2,           0.,          20.,          35.
      3,           0.,         -20.,          35.
      4,           0.,         -20.,          40.
      5,           0.,         -36.,          40.
      6,           0.,          36.,          40.
      7,   22.4697933,  -28.1266479,   5.00165653
      8,   28.1266479,  -22.4697933,   5.00165653
      9,   28.1266479,  -22.4697933,   34.9983444
     10,   22.4697933,  -28.1266479,   34.9983444
     11,   35.7770882,          -4.,   5.00165653
     12,   35.7770882,           4.,   5.00165653
     13,   35.7770882,           4.,   34.9983444
     14,   35.7770882,          -4.,   34.9983444
     15,   28.1266479,   22.4697933,   5.00165653
     16,   22.4697933,   28.1266479,   5.00165653
     17,   22.4697933,   28.1266479,   34.9983444
     18,   28.1266479,   22.4697933,   34.9983444
     19,           4.,   35.7770882,   34.9983444
     20,           0.,          36.,          35.
** ... 1351 like lines cut
*Element, type=C3D4
   1, 1145, 1146,   94,  961
   2, 1145,  990,  521,  520
   3, 1145,  987,  520,  957
   4, 1147, 1148,  987, 1068
   5, 1147, 1149, 1133, 1114
   6, 1147, 1148, 1068,  514
   7, 1147, 1149, 1114, 1067
   8, 1150,  860, 1151,  370
   9, 1150,  920,  200,  684
  10,  336,  684,  920, 1150
  11, 1152,  240,  813,  814
  12, 1152, 1153,  732, 1154
  13,  813,  406,  407, 1152
  14, 1155,  690,  756, 1152
  15,  763, 1155,  690,  756
  16, 1152,  756, 1154,  732
  17, 1152,  406,  407, 1156
  18, 1152, 1156, 1154,  756
  19,  564,  861,  365,  366
  20, 1157, 1158,  382,  740
** ... 4172 like lines cut
*Nset, nset=Set-omnineck, generate
    1,  1371,     1
*Elset, elset=Set-omnineck, generate
    1,  4192,     1
** Section: Section-omnineck
*Solid Section, elset=Set-omnineck, material=PU
,
*End Part
**  
**
** ASSEMBLY
**
*Assembly, name=Assembly
**  
*Instance, name=omnineck-1, part=omnineck
*End Instance
**  
*Node
      1,           0.,           0.,          40.
*Nset, nset=Set-RP-1
 1,
*Nset, nset=Set-bottom, instance=omnineck-1
   95,   96,  109,  110,  516,  517,  518,  519,  520,  521,  522,  523,  524,  525,  526,  527
  528,  529,  530,  531,  532,  533,  534,  535,  536,  537,  592,  593,  594,  595,  596,  597
  598,  599,  600,  601,  602,  603,  604,  605,  606,  607,  608,  609,  610,  611,  612,  613
  629,  630,  631,  632,  633,  634,  635,  636,  637,  638,  639,  640,  641,  642,  643,  644
  645,  646,  647,  648,  649,  650,  651,  652,  983,  984,  985,  986,  987,  988,  989,  990
  991,  992,  993,  994,  995,  996,  997,  998,  999, 1000, 1001, 1002, 1003, 1004, 1005, 1006
 1007, 1008, 1009, 1010, 1011, 1012, 1013, 1014, 1015, 1016, 1017, 1018, 1019, 1020, 1021, 1022
 1023, 1024, 1025, 1026, 1027, 1028, 1029, 1030, 1031, 1032, 1033, 1034, 1035, 1036, 1037, 1038
 1039, 1040, 1041, 1042, 1043, 1044, 1045, 1046, 1047, 1048, 1049, 1050, 1051, 1052, 1053, 1054
 1055, 1056, 1057, 1058, 1059, 1060, 1061, 1062, 1063, 1064, 1065, 1066, 1067, 1068, 1069, 1070
 1071, 1072, 1073, 1074, 1075, 1076, 1077, 1078, 1079, 1080, 1081, 1082, 1083, 1084, 1085, 1086
 1087, 1088, 1089, 1090, 1091, 1092, 1093, 1094, 1095, 1096, 1097, 1098, 1099, 1100
*Elset, elset=Set-bottom, instance=omnineck-1
    2,   30,   39,   64,   65,   72,   73,   74,   99,  132,  154,  160,  190,  226,  374,  386
  401,  403,  405,  463,  467,  470,  480,  481,  484,  491,  501,  561,  636,  666,  742,  757
  805,  829,  847,  851,  905,  921,  930,  936,  957,  967,  975, 1005, 1027, 1042, 1102, 1123
 1144, 1163, 1164, 1167, 1168, 1197, 1203, 1228, 1229, 1230, 1244, 1245, 1246, 1250, 1255, 1258
 1259, 1271, 1277, 1278, 1280, 1319, 1334, 1347, 1349, 1350, 1353, 1357, 1359, 1378, 1413, 1425
 1428, 1430, 1456, 1471, 1482, 1489, 1513, 1541, 1542, 1548, 1551, 1553, 1563, 1565, 1566, 1571
 1576, 1579, 1584, 1585, 1599, 1603, 1611, 1616, 1633, 1634, 1637, 1640, 1643, 1645, 1646, 1647
 1650, 1656, 1662, 1667, 1670, 1678, 1679, 1680, 1696, 1700, 1710, 1715, 1718, 1724, 1729, 1737
 1738, 1751, 1754, 1760, 1763, 1767, 1771, 1775, 1781, 1782, 1786, 1792, 1795, 1796, 1799, 1810
 1822, 1836, 1849, 1858, 1860, 1866, 1870, 1879, 1885, 1888, 1899, 1907, 1910, 1912, 1915, 1922
 1926, 1929, 1935, 1936, 1946, 1951, 1955, 1967, 1980, 1986, 1993, 1998, 2005, 2007, 2020, 2023
 2025, 2040, 2041, 2044, 2046, 2050, 2053, 2054, 2055, 2062, 2068, 2069, 2073, 2084, 2092, 2098
 2100, 2108, 2113, 2118, 2119, 2124, 2127, 2129, 2131, 2135, 2141, 2147, 2152, 2162, 2172, 2175
 2184, 2199, 2217, 2219, 2228, 2238, 2239, 2242, 2283, 2325, 2328, 2333, 2337, 2357, 2362, 2367
 2368, 2369, 2380, 2395, 2397, 2398, 2403, 2428, 2436, 2445, 2455, 2460, 2483, 2491, 2503, 2529
 2568, 2574, 2616, 2645, 2649, 2662, 2677, 2680, 2687, 2695, 2698, 2703, 2709, 2721, 2726, 2733
 2737, 2741, 2744, 2751, 2807, 2830, 2848, 2853, 2868, 2869, 2890, 2899, 2913, 2938, 2952, 2960
 2965, 2966, 2967, 2974, 2985, 3000, 3019, 3020, 3045, 3053, 3073, 3095, 3098, 3101, 3109, 3126
 3147, 3157, 3165, 3263, 3294, 3349, 3350, 3360, 3367, 3374, 3382, 3390, 3579, 3596, 3807, 3840
 3934, 4040, 4068, 4089
*Nset, nset=Set-bound, instance=omnineck-1
   1,   4,   5,   6, 125, 126, 127, 128, 129, 130, 131, 132, 133, 134, 135, 136
 149, 150, 151, 152, 153, 154, 155, 156, 157, 158, 159, 160, 161, 162, 163, 164
 165, 166, 167, 168, 169, 170, 171, 172, 173, 174, 175, 176, 177, 178, 179, 180
 181, 182, 183, 184, 185, 186, 187, 188, 189, 190, 191, 192, 193, 194, 195, 196
 197, 198, 199, 200, 201, 202, 203, 204, 677, 678, 679, 680, 681, 682, 683, 684
 685, 686, 687, 688, 689, 690, 691, 692, 693, 694, 695, 696, 697, 698, 699, 700
 701, 702, 703, 704, 705, 706, 707, 708, 709, 710, 711, 712, 713, 714, 715, 716
 717, 718, 719, 720, 721, 722, 723, 724, 725, 726, 727, 728, 729, 730, 731, 732
 733, 734, 735, 736, 737, 738, 739, 740, 741, 742, 743, 744, 745, 746, 747, 748
 749, 750, 751, 752, 753, 754, 755, 756, 757, 758, 759, 760, 761, 762, 763, 764
 765, 766, 767, 768, 769, 770, 771, 772, 773, 774, 775, 776, 777, 778, 779, 780
 781, 782, 783, 784, 785, 786, 787, 788, 789, 790, 791, 792, 793, 794
*Elset, elset=Set-bound, instance=omnineck-1
   15,   59,   68,  123,  135,  240,  241,  306,  323,  354,  367,  395,  406,  424,  427,  465
  479,  518,  540,  549,  599,  617,  693,  709,  771,  835,  867,  877,  917,  986, 1003, 1007
 1010, 1026, 1109, 1153, 1177, 1182, 1192, 1213, 1251, 1284, 1295, 1315, 1332, 1360, 1364, 1441
 1472, 1515, 1580, 1671, 1720, 1731, 1743, 1749, 1789, 1798, 1827, 1839, 1877, 1889, 1891, 1906
 1957, 1982, 1988, 2028, 2049, 2094, 2096, 2097, 2101, 2106, 2132, 2149, 2163, 2166, 2169, 2173
 2185, 2191, 2194, 2201, 2221, 2222, 2225, 2236, 2243, 2253, 2259, 2275, 2290, 2292, 2300, 2311
 2314, 2322, 2324, 2327, 2332, 2344, 2383, 2399, 2405, 2407, 2411, 2419, 2423, 2424, 2432, 2451
 2458, 2466, 2474, 2480, 2490, 2504, 2516, 2521, 2534, 2535, 2542, 2550, 2555, 2564, 2565, 2577
 2582, 2584, 2591, 2592, 2593, 2606, 2607, 2614, 2621, 2635, 2637, 2647, 2652, 2660, 2674, 2690
 2692, 2697, 2700, 2707, 2711, 2712, 2713, 2714, 2716, 2723, 2739, 2754, 2757, 2764, 2769, 2771
 2773, 2785, 2789, 2792, 2798, 2801, 2819, 2820, 2823, 2845, 2847, 2850, 2863, 2886, 2887, 2901
 2905, 2923, 2941, 2944, 2945, 2954, 2957, 2972, 2973, 2977, 2989, 2994, 2996, 3010, 3022, 3035
 3036, 3037, 3068, 3075, 3119, 3158, 3174, 3179, 3192, 3196, 3208, 3211, 3221, 3230, 3234, 3239
 3249, 3265, 3271, 3291, 3295, 3314, 3316, 3318, 3323, 3344, 3356, 3359, 3446, 3468, 3480, 3481
 3484, 3485, 3486, 3487, 3502, 3508, 3513, 3519, 3524, 3528, 3533, 3534, 3540, 3554, 3563, 3564
 3609, 3648, 3681, 3683, 3697, 3703, 3707, 3717, 3718, 3720, 3729, 3730, 3743, 3746, 3747, 3748
 3756, 3759, 3765, 3771, 3783, 3791, 3795, 3797, 3808, 3809, 3812, 3813, 3832, 3833, 3836, 3874
 3877, 3882, 3883, 3890, 3899, 3923, 3928, 3929, 3940, 3941, 3976, 3988, 3995, 3999, 4023, 4027
 4031, 4044, 4051, 4052, 4054, 4061, 4062, 4063, 4067, 4086, 4088, 4093, 4095, 4102, 4117, 4135
 4139, 4144, 4157, 4170
*Nset, nset=Set-surface, instance=omnineck-1, generate
    1,  1144,     1
*Elset, elset=Set-surface, instance=omnineck-1
    2,   11,   15,   19,   22,   30,   35,   39,   47,   53,   55,   59,   64,   65,   67,   68
   71,   72,   73,   74,   75,   79,   81,   82,   88,   89,   90,   97,   99,  112,  121,  123
  129,  131,  132,  135,  136,  139,  143,  148,  149,  154,  156,  158,  160,  167,  172,  176
  178,  180,  182,  186,  189,  190,  191,  192,  200,  202,  207,  208,  210,  214,  216,  217
  221,  224,  225,  226,  230,  233,  235,  237,  240,  241,  245,  247,  250,  255,  256,  257
  258,  263,  277,  278,  285,  287,  288,  290,  291,  294,  299,  301,  302,  303,  305,  306
  314,  315,  316,  320,  323,  325,  326,  329,  338,  341,  354,  359,  366,  367,  370,  372
  373,  374,  378,  380,  386,  390,  391,  392,  393,  395,  396,  397,  401,  403,  405,  406
  408,  409,  410,  411,  412,  413,  417,  424,  427,  431,  438,  441,  463,  464,  465,  466
  467,  470,  472,  473,  479,  480,  481,  483,  484,  491,  501,  512,  514,  518,  519,  520
  521,  523,  524,  525,  527,  528,  529,  531,  534,  537,  540,  541,  543,  547,  549,  550
  557,  561,  568,  569,  573,  575,  577,  592,  596,  599,  605,  610,  612,  614,  617,  623
  631,  634,  635,  636,  642,  645,  648,  651,  652,  655,  660,  664,  666,  671,  676,  681
  683,  684,  686,  689,  693,  695,  708,  709,  722,  723,  727,  728,  733,  742,  754,  757
  759,  760,  762,  764,  766,  769,  771,  777,  779,  782,  792,  793,  796,  797,  799,  800
  805,  811,  817,  819,  820,  825,  829,  835,  841,  842,  847,  848,  851,  855,  857,  865
  867,  869,  872,  874,  875,  877,  878,  880,  884,  887,  891,  892,  894,  896,  898,  900
  901,  905,  915,  916,  917,  918,  919,  920,  921,  926,  929,  930,  935,  936,  938,  943
  944,  945,  949,  956,  957,  959,  961,  962,  964,  965,  967,  968,  970,  975,  986,  992
  997,  998, 1003, 1005, 1007, 1010, 1012, 1014, 1016, 1017, 1021, 1026, 1027, 1030, 1042, 1046
** ... 110 like lines cut
*Nset, nset=Set-zero, instance=omnineck-1
   95,   96,  109,  110,  516,  517,  518,  519,  520,  521,  522,  523,  524,  525,  526,  527
  528,  529,  530,  531,  532,  533,  534,  535,  536,  537,  592,  593,  594,  595,  596,  597
  598,  599,  600,  601,  602,  603,  604,  605,  606,  607,  608,  609,  610,  611,  612,  613
  629,  630,  631,  632,  633,  634,  635,  636,  637,  638,  639,  640,  641,  642,  643,  644
  645,  646,  647,  648,  649,  650,  651,  652,  983,  984,  985,  986,  987,  988,  989,  990
  991,  992,  993,  994,  995,  996,  997,  998,  999, 1000, 1001, 1002, 1003, 1004, 1005, 1006
 1007, 1008, 1009, 1010, 1011, 1012, 1013, 1014, 1015, 1016, 1017, 1018, 1019, 1020, 1021, 1022
 1023, 1024, 1025, 1026, 1027, 1028, 1029, 1030, 1031, 1032, 1033, 1034, 1035, 1036, 1037, 1038
 1039, 1040, 1041, 1042, 1043, 1044, 1045, 1046, 1047, 1048, 1049, 1050, 1051, 1052, 1053, 1054
 1055, 1056, 1057, 1058, 1059, 1060, 1061, 1062, 1063, 1064, 1065, 1066, 1067, 1068, 1069, 1070
 1071, 1072, 1073, 1074, 1075, 1076, 1077, 1078, 1079, 1080, 1081, 1082, 1083, 1084, 1085, 1086
 1087, 1088, 1089, 1090, 1091, 1092, 1093, 1094, 1095, 1096, 1097, 1098, 1099, 1100
*Elset, elset=Set-zero, instance=omnineck-1
    2,   30,   39,   64,   65,   72,   73,   74,   99,  132,  154,  160,  190,  226,  374,  386
  401,  403,  405,  463,  467,  470,  480,  481,  484,  491,  501,  561,  636,  666,  742,  757
  805,  829,  847,  851,  905,  921,  930,  936,  957,  967,  975, 1005, 1027, 1042, 1102, 1123
 1144, 1163, 1164, 1167, 1168, 1197, 1203, 1228, 1229, 1230, 1244, 1245, 1246, 1250, 1255, 1258
 1259, 1271, 1277, 1278, 1280, 1319, 1334, 1347, 1349, 1350, 1353, 1357, 1359, 1378, 1413, 1425
 1428, 1430, 1456, 1471, 1482, 1489, 1513, 1541, 1542, 1548, 1551, 1553, 1563, 1565, 1566, 1571
 1576, 1579, 1584, 1585, 1599, 1603, 1611, 1616, 1633, 1634, 1637, 1640, 1643, 1645, 1646, 1647
 1650, 1656, 1662, 1667, 1670, 1678, 1679, 1680, 1696, 1700, 1710, 1715, 1718, 1724, 1729, 1737
 1738, 1751, 1754, 1760, 1763, 1767, 1771, 1775, 1781, 1782, 1786, 1792, 1795, 1796, 1799, 1810
 1822, 1836, 1849, 1858, 1860, 1866, 1870, 1879, 1885, 1888, 1899, 1907, 1910, 1912, 1915, 1922
 1926, 1929, 1935, 1936, 1946, 1951, 1955, 1967, 1980, 1986, 1993, 1998, 2005, 2007, 2020, 2023
 2025, 2040, 2041, 2044, 2046, 2050, 2053, 2054, 2055, 2062, 2068, 2069, 2073, 2084, 2092, 2098
 2100, 2108, 2113, 2118, 2119, 2124, 2127, 2129, 2131, 2135, 2141, 2147, 2152, 2162, 2172, 2175
 2184, 2199, 2217, 2219, 2228, 2238, 2239, 2242, 2283, 2325, 2328, 2333, 2337, 2357, 2362, 2367
 2368, 2369, 2380, 2395, 2397, 2398, 2403, 2428, 2436, 2445, 2455, 2460, 2483, 2491, 2503, 2529
 2568, 2574, 2616, 2645, 2649, 2662, 2677, 2680, 2687, 2695, 2698, 2703, 2709, 2721, 2726, 2733
 2737, 2741, 2744, 2751, 2807, 2830, 2848, 2853, 2868, 2869, 2890, 2899, 2913, 2938, 2952, 2960
 2965, 2966, 2967, 2974, 2985, 3000, 3019, 3020, 3045, 3053, 3073, 3095, 3098, 3101, 3109, 3126
 3147, 3157, 3165, 3263, 3294, 3349, 3350, 3360, 3367, 3374, 3382, 3390, 3579, 3596, 3807, 3840
 3934, 4040, 4068, 4089
*Elset, elset=_Surf-bottom_S3, internal, instance=omnineck-1
    2,   30,   64,   65,   72,   73,   74,   99,  132,  160,  190,  226,  374,  386,  401,  403
  405,  463,  470,  480,  481,  484,  491,  501,  561,  636,  742,  757,  805,  829,  847,  851
  905,  921,  930,  936,  957,  967,  975, 1005, 1027, 1042, 1102, 1123, 1144, 1163, 1164, 1167
 1168, 1197, 1228, 1230, 1244, 1245, 1246, 1255, 1258, 1259, 1271, 1277, 1278, 1280, 1319, 1347
 1349, 1350, 1353, 1357, 1359, 1378, 1413, 1425, 1428, 1456, 1482, 1489, 1513, 1541, 1542, 1548
 1551, 1553, 1565, 1566, 1571, 1576, 1579, 1584, 1585, 1599, 1603, 1611, 1616, 1633, 1634, 1645
 1646, 1647, 1650, 1667, 1670, 1678, 1680, 1696, 1700, 1710, 1715, 1724, 1737, 1738, 1754, 1760
 1763, 1767, 1771, 1775, 1781, 1786, 1792, 1795, 1796, 1799, 1810, 1836, 1849, 1858, 1860, 1870
 1885, 1888, 1899, 1907, 1910, 1912, 1915, 1922, 1926, 1929, 1935, 1936, 1946, 1951, 1955, 1967
 1986, 1993, 1998, 2023, 2025, 2040, 2041, 2046, 2050, 2053, 2054, 2055, 2062, 2068, 2069, 2073
 2084, 2092, 2098, 2100, 2108, 2119, 2124, 2127, 2129, 2135, 2141, 2152, 2162, 2172, 2175, 2184
 2199, 2217, 2219, 2228, 2238, 2242, 2283, 2328, 2333, 2337, 2362, 2368, 2369, 2380, 2397, 2398
 2403, 2428, 2436, 2455, 2460, 2483, 2491, 2503, 2529, 2568, 2574, 2616, 2645, 2649, 2662, 2680
 2687, 2698, 2703, 2709, 2744, 2830, 2848, 2853, 2868, 2869, 2890, 2899, 2913, 2952, 2960, 2965
 2967, 2974, 3000, 3019, 3020, 3045, 3053, 3073, 3095, 3098, 3101, 3109, 3147, 3263, 3349, 3350
 3360, 3367, 3374, 3807, 3840, 4040
*Elset, elset=_Surf-bottom_S1, internal, instance=omnineck-1
   39,  154,  467, 1640, 1729, 2007, 2020, 2325, 2695, 2751, 3294, 3579, 4068
*Elset, elset=_Surf-bottom_S4, internal, instance=omnineck-1
  666, 1229, 1250, 1471, 1679, 1718, 1751, 1822, 2131, 2357, 2367, 2395, 2445, 2721, 2726, 2737
 2741, 2938, 2985, 3126, 3157, 3382, 3390, 3596
*Elset, elset=_Surf-bottom_S2, internal, instance=omnineck-1
 1203, 1334, 1430, 1563, 1637, 1643, 1656, 1662, 1782, 1866, 1879, 1980, 2005, 2044, 2113, 2118
 2147, 2239, 2677, 2733, 2807, 2966, 3165, 3934, 4089
*Surface, type=ELEMENT, name=Surf-bottom
_Surf-bottom_S3, S3
_Surf-bottom_S1, S1
_Surf-bottom_S4, S4
_Surf-bottom_S2, S2
*Elset, elset=_Surf-bound_S4, internal, instance=omnineck-1
   15,   59,  354,  395,  771, 2028, 2542, 2707, 2771, 3196, 3316, 3759, 3795, 3995
*Elset, elset=_Surf-bound_S1, internal, instance=omnineck-1
   68, 1010, 1315
*Elset, elset=_Surf-bound_S3, internal, instance=omnineck-1
  123,  135,  240,  241,  306,  323,  367,  406,  424,  427,  465,  479,  518,  540,  549,  599
  617,  693,  709,  835,  867,  877,  917,  986, 1003, 1026, 1109, 1153, 1177, 1182, 1192, 1213
 1251, 1284, 1295, 1332, 1360, 1364, 1441, 1472, 1515, 1580, 1671, 1720, 1743, 1749, 1789, 1798
 1827, 1839, 1877, 1889, 1891, 1982, 1988, 2049, 2094, 2096, 2097, 2101, 2106, 2132, 2149, 2163
 2166, 2169, 2173, 2185, 2191, 2194, 2201, 2221, 2222, 2225, 2236, 2243, 2259, 2275, 2290, 2292
 2300, 2311, 2322, 2324, 2327, 2332, 2344, 2383, 2399, 2405, 2407, 2411, 2419, 2423, 2424, 2432
 2451, 2458, 2466, 2474, 2480, 2490, 2516, 2521, 2534, 2535, 2550, 2555, 2564, 2565, 2577, 2582
 2584, 2591, 2592, 2593, 2606, 2607, 2614, 2621, 2635, 2637, 2647, 2652, 2660, 2674, 2690, 2692
 2697, 2700, 2711, 2712, 2713, 2714, 2716, 2739, 2754, 2757, 2764, 2769, 2773, 2785, 2789, 2792
 2798, 2801, 2819, 2820, 2845, 2847, 2850, 2863, 2886, 2887, 2901, 2905, 2923, 2941, 2944, 2945
 2954, 2957, 2972, 2973, 2977, 2989, 2994, 2996, 3010, 3022, 3035, 3036, 3037, 3068, 3075, 3119
 3158, 3174, 3179, 3192, 3208, 3211, 3221, 3230, 3234, 3239, 3249, 3265, 3271, 3291, 3295, 3314
 3318, 3323, 3344, 3356, 3359, 3446, 3468, 3480, 3481, 3484, 3485, 3486, 3487, 3502, 3508, 3513
 3524, 3528, 3533, 3534, 3540, 3554, 3563, 3564, 3648, 3681, 3683, 3697, 3703, 3707, 3717, 3718
 3720, 3729, 3730, 3743, 3746, 3747, 3756, 3771, 3783, 3791, 3797, 3808, 3809, 3812, 3813, 3832
 3874, 3877, 3882, 3883, 3890, 3899, 3923, 3928, 3929, 3940, 3941, 3976, 3988, 3999, 4023, 4027
 4031, 4044, 4051, 4052, 4054, 4061, 4062, 4063, 4067, 4086, 4088, 4093, 4095, 4102, 4117, 4135
 4139, 4144, 4157, 4170
*Elset, elset=_Surf-bound_S2, internal, instance=omnineck-1
 1007, 1731, 1906, 1957, 2253, 2314, 2504, 2723, 2823, 3519, 3609, 3748, 3765, 3833, 3836
*Surface, type=ELEMENT, name=Surf-bound
_Surf-bound_S4, S4
_Surf-bound_S1, S1
_Surf-bound_S2, S2
_Surf-bound_S3, S3
** Constraint: Constraint-bound
*Coupling, constraint name=Constraint-bound, ref node=Set-RP-1, surface=Surf-bound
*Kinematic
** 
** INTEGRATED OUTPUT SECTIONS
** 
*Integrated Output Section, name=I-Section-1, surface=Surf-bottom, project orientation=NO
*End Assembly
** 
** MATERIALS
** 
*Material, name=PU
*Elastic
5., 0.475
** 
** BOUNDARY CONDITIONS
** 
** Name: BC-bottom Type: Symmetry/Antisymmetry/Encastre
*Boundary
Set-bottom, ENCASTRE
** ----------------------------------------------------------------
** 
** STEP: Step-1
** 
*Step, name=Step-1, nlgeom=YES
*Static
1., 1., 1e-05, 1.
** 
** BOUNDARY CONDITIONS
** 
** Name: BC-RP Type: Displacement/Rotation
*Boundary
Set-RP-1, 1, 1, u1
Set-RP-1, 2, 2, u2
Set-RP-1, 3, 3, u3
Set-RP-1, 4, 4, ur1
Set-RP-1, 5, 5, ur2
Set-RP-1, 6, 6, ur3
** 
** OUTPUT REQUESTS
** 
*Restart, write, frequency=0
** 
** FIELD OUTPUT: F-Output-1
** 
*Output, field
*Node Output
U, 
*Element Output, directions=YES
S, 
** 
** HISTORY OUTPUT: H-Output-1
** 
*Output, history
*Integrated Output, section=I-Section-1
SOF, SOM
*End Step
